57
ZnC32N8H16
H        1.245429801      0.000000000     -8.364526438
N        1.245429801      1.888511627     -0.473368211
N        1.245429801     -0.312852837      1.102290580
N        1.245429801     -1.888511627     -1.099073884
N        1.245429801      0.312852837     -2.674732674
N        1.245429801      1.963875435      1.957523740
N        1.245429801     -2.743744788      1.177654388
N        1.245429801     -1.963875435     -3.529965835
N        1.245429801      2.743744788     -2.750096482
C        1.245429801      2.520430753      0.760083209
C        1.245429801     -1.546304257      1.734209706
C        1.245429801     -2.520430753     -2.332525304
C        1.245429801      1.546304257     -3.306651801
C        1.245429801      2.884426877     -1.437150864
C        1.245429801      0.650929817      2.098205830
C        1.245429801     -2.884426877     -0.135291231
C        1.245429801     -0.650929817     -3.670647925
C        1.245429801      3.963393769      0.581531149
C        1.245429801     -1.367752196      3.177172722
C        1.245429801     -3.963393769     -2.153973244
C        1.245429801      1.367752196     -4.749614817
C        1.245429801      4.192727115     -0.802821619
C        1.245429801      0.016600571      3.406506068
C        1.245429801     -4.192727115     -0.769620476
C        1.245429801     -0.016600571     -4.978948163
C        1.245429801      5.021956446      1.494136485
C        1.245429801     -2.280357533      4.235735398
C        1.245429801     -5.021956446     -3.066578580
C        1.245429801      2.280357533     -5.808177493
C        1.245429801      5.489030163     -1.325317405
C        1.245429801      0.539096357      4.702809116
C        1.245429801     -5.489030163     -0.247124690
C        1.245429801     -0.539096357     -6.275251211
C        1.245429801      6.319704030      0.976137244
C        1.245429801     -1.762358291      5.533482982
C        1.245429801     -6.319704030     -2.548579339
C        1.245429801      1.762358291     -7.105925077
C        1.245429801      6.550410218     -0.416502580
C        1.245429801     -0.369718468      5.764189171
C        1.245429801     -6.550410218     -1.155939515
C        1.245429801      0.369718468     -7.336631266
H        1.245429801      4.833425783      2.568185542
H        1.245429801     -3.354406590      4.047204735
H        1.245429801     -4.833425783     -4.140627637
H        1.245429801      3.354406590     -5.619646830
H        1.245429801      5.656922110     -2.402785493
H        1.245429801      1.616564446      4.870701062
H        1.245429801     -5.656922110      0.830343398
H        1.245429801     -1.616564446     -6.443143157
H        1.245429801      7.173463932      1.657572684
H        1.245429801      7.578305390     -0.786221047
H        1.245429801     -7.578305390     -0.786221047
H        1.245429801     -7.173463932     -3.230014779
H        1.245429801     -2.443793732      6.387242885
H        1.245429801      0.000000000      6.792084343
H        1.245429801      2.443793732     -7.959684980
Zn       1.245429801      0.000000000     -0.786221047
